!XTB VERYTIGHTSCF LooseOpt
%geom MaxIter 500 end
* xyz -3 3
W 0.000000 0.000000 0.000000
Cl 1.000000 0.000000 1.500000
Cl -0.500000 0.866000 1.500000
Cl -0.500000 -0.866000 1.500000
N 1.000000 0.000000 -1.500000
H 1.967862 -0.130398 -1.132960
H 0.628992 0.903394 -1.132928
H 0.403146 -0.772996 -1.132942
C -0.500000 0.866000 -1.500000
H 0.522681 1.085378 -1.130182
H -1.201328 1.641976 -1.130172
H -0.821353 -0.129354 -1.130176
C -0.500000 -0.866000 -1.500000
H 0.522681 -0.646622 -1.130182
H -1.201328 -0.090024 -1.130172
H -0.821353 -1.861354 -1.130176
*
