!XTB VERYTIGHTSCF LooseOpt
%geom MaxIter 500 end
* xyz 2 1
Zr 0.000000 0.000000 0.000000
O 1.517348 1.517348 1.517348
C 0.866025 0.866025 0.866025
O -1.517348 -1.517348 1.517348
C -0.866025 -0.866025 0.866025
C -0.866025 0.866025 -0.866025
H -0.690404 1.932463 -0.615753
H -0.615761 0.690409 -1.932468
H -1.932464 0.615757 -0.690409
C 0.866025 -0.866025 -0.866025
H 1.468676 -0.226617 -1.543327
H 1.543331 -1.468683 -0.226624
H 0.226623 -1.543330 -1.468678
*
