!XTB VERYTIGHTSCF LooseOpt
%geom MaxIter 500 end
* xyz 4 3
W 0.000000 0.000000 0.000000
O 3.128123 0.000000 0.000000
C 2.000000 0.000000 0.000000
O -3.128123 0.000000 0.000000
C -2.000000 0.000000 0.000000
O 0.000000 3.128123 0.000000
C 0.000000 2.000000 0.000000
O 0.000000 -3.128123 0.000000
C 0.000000 -2.000000 0.000000
*
