! B3LYP Def2-SVP Opt D3BJ
%PAL NPROCS 16 END
* xyz 1 6
Mn 0.000000 0.000000 0.000000
Cl 0.000000 1.500000 0.000000
P -1.500000 0.000000 0.000000
H -2.281181 -0.228656 1.203315
H -2.281191 1.156424 -0.403631
H -2.281183 -0.927768 -0.799684
O 1.500000 0.000000 0.000000
H 2.106188 0.255183 -0.740289
H 2.106188 -0.255183 0.740289
*
