!XTB VERYTIGHTSCF LooseOpt
%geom MaxIter 500 end
* xyz -2 5
Cr 0.000000 0.000000 0.000000
Cl 1.500000 0.000000 0.000000
Cl -1.500000 0.000000 0.000000
Cl 0.000000 1.500000 0.000000
O 0.000000 -2.628123 0.000000
C 0.000000 -1.500000 0.000000
O 0.000000 0.000000 1.500000
H 0.740289 0.255183 2.106188
H -0.740289 -0.255183 2.106188
C 0.000000 0.000000 -1.500000
H -1.022681 -0.219378 -1.869818
H 0.701328 -0.775976 -1.869828
H 0.321353 0.995354 -1.869824
*
