!XTB VERYTIGHTSCF LooseOpt
%geom MaxIter 500 end
* xyz -2 2
Mn 0.000000 0.000000 0.000000
Cl 1.500000 1.500000 0.000000
Cl -1.500000 1.500000 0.000000
Cl -1.500000 -1.500000 0.000000
Cl 1.500000 -1.500000 0.000000
O 0.000000 0.000000 2.000000
H 0.740289 0.255183 2.606188
H -0.740289 -0.255183 2.606188
*
