!XTB VERYTIGHTSCF LooseOpt
%geom MaxIter 500 end
* xyz 2 5
W 0.000000 0.000000 0.000000
S 1.000000 0.000000 1.500000
H 2.010479 -0.074212 2.476730
H -0.010479 0.074212 2.476727
S -0.500000 0.866000 1.500000
H 0.510479 0.791788 2.476730
H -1.510479 0.940212 2.476727
S -0.500000 -0.866000 1.500000
H 0.510479 -0.940212 2.476730
H -1.510479 -0.791788 2.476727
N 1.000000 0.000000 -1.500000
H 1.967862 -0.130398 -1.132960
H 0.628992 0.903394 -1.132928
H 0.403146 -0.772996 -1.132942
O -0.500000 0.866000 -1.500000
H 0.240289 1.121183 -0.893812
H -1.240289 0.610817 -0.893812
O -0.500000 -0.866000 -1.500000
H 0.240289 -0.610817 -0.893812
H -1.240289 -1.121183 -0.893812
*
