!XTB VERYTIGHTSCF LooseOpt
%geom MaxIter 500 end
* xyz 2 5
Cr 0.000000 0.000000 0.000000
O 3.128123 0.000000 0.000000
C 2.000000 0.000000 0.000000
O -3.128123 0.000000 0.000000
C -2.000000 0.000000 0.000000
S 0.000000 2.000000 0.000000
H 1.010479 2.976730 0.074212
H -1.010479 2.976727 -0.074212
N 0.000000 -2.000000 0.000000
H 0.967862 -2.367040 -0.130398
H -0.371008 -2.367072 0.903394
H -0.596854 -2.367058 -0.772996
*
