!XTB VERYTIGHTSCF LooseOpt
%geom MaxIter 500 end
* xyz -2 5
Mo 0.000000 0.000000 0.000000
Cl 1.500000 0.000000 0.000000
Cl -1.500000 0.000000 0.000000
O 0.000000 2.628123 0.000000
C 0.000000 1.500000 0.000000
S 0.000000 -1.500000 0.000000
H 1.010479 -2.476730 -0.074212
H -1.010479 -2.476727 0.074212
P 0.000000 0.000000 1.500000
H 1.203315 -0.228656 2.281181
H -0.403631 1.156424 2.281191
H -0.799684 -0.927768 2.281183
O 0.000000 0.000000 -1.500000
H -0.740289 -0.255183 -2.106188
H 0.740289 0.255183 -2.106188
*
