!XTB VERYTIGHTSCF LooseOpt
%geom MaxIter 500 end
* xyz 0 5
Mo 0.000000 0.000000 0.000000
S 0.000000 0.000000 2.000000
H 1.010479 -0.074212 2.976730
H -1.010479 0.074212 2.976727
S 0.000000 0.000000 -2.000000
H -1.010479 0.074212 -2.976730
H 1.010479 -0.074212 -2.976727
O 2.000000 0.000000 0.000000
H 2.606188 0.255183 -0.740289
H 2.606188 -0.255183 0.740289
C -1.000000 1.732051 0.000000
H -0.322905 2.550001 0.321354
H -1.374903 1.942641 -1.022679
H -1.856928 1.664339 0.701325
C -1.000000 -1.732051 0.000000
H -0.512892 -2.440312 0.701327
H -2.046917 -1.554653 0.321351
H -0.994926 -2.162016 -1.022678
*
