!XTB VERYTIGHTSCF LooseOpt
%geom MaxIter 500 end
* xyz 2 6
Mn 0.000000 0.000000 0.000000
O 3.128123 0.000000 0.000000
C 2.000000 0.000000 0.000000
O -1.564062 2.709034 -0.000000
C -1.000000 1.732051 0.000000
S -1.000000 -1.732051 0.000000
H -0.698371 -3.034027 0.440970
H -2.278357 -2.121818 -0.440970
*
