!XTB VERYTIGHTSCF LooseOpt
%geom MaxIter 500 end
* xyz 1 3
Cr 0.000000 0.000000 0.000000
Cl 2.000000 0.000000 0.000000
N -2.000000 0.000000 0.000000
H -2.367040 -0.130398 0.967862
H -2.367072 0.903394 -0.371008
H -2.367058 -0.772996 -0.596854
O 0.000000 2.000000 0.000000
H 0.740289 2.606188 -0.255183
H -0.740289 2.606188 0.255183
O 0.000000 -2.000000 0.000000
H 0.740289 -2.606188 0.255183
H -0.740289 -2.606188 -0.255183
*
