!XTB VERYTIGHTSCF LooseOpt
%geom MaxIter 500 end
* xyz 1 6
Mn 0.000000 0.000000 0.000000
Cl 0.866025 0.866025 0.866025
O -1.517348 -1.517348 1.517348
C -0.866025 -0.866025 0.866025
O -1.517348 1.517348 -1.517348
C -0.866025 0.866025 -0.866025
P 0.866025 -0.866025 -0.866025
H 1.390996 -0.416337 -2.143789
H 2.143792 -1.390999 -0.416348
H 0.416341 -2.143793 -1.390991
*
