!XTB VERYTIGHTSCF LooseOpt
%geom MaxIter 500 end
* xyz 2 2
Mn 0.000000 0.000000 0.000000
N 1.500000 1.500000 0.000000
H 2.467862 1.369602 0.367040
H 1.128992 2.403394 0.367072
H 0.903146 0.727004 0.367058
P -1.500000 1.500000 0.000000
H -0.296685 1.271344 0.781181
H -1.903631 2.656424 0.781191
H -2.299684 0.572232 0.781183
O -1.500000 -1.500000 0.000000
H -0.759711 -1.244817 0.606188
H -2.240289 -1.755183 0.606188
O 1.500000 -1.500000 0.000000
H 2.240289 -1.244817 0.606188
H 0.759711 -1.755183 0.606188
O 0.000000 0.000000 2.000000
H 0.740289 0.255183 2.606188
H -0.740289 -0.255183 2.606188
*
