!XTB VERYTIGHTSCF LooseOpt
%geom MaxIter 500 end
* xyz 1 3
W 0.000000 0.000000 0.000000
Cl 1.000000 0.000000 1.500000
O -0.500000 0.866000 2.628123
C -0.500000 0.866000 1.500000
O -0.500000 -0.866000 2.628123
C -0.500000 -0.866000 1.500000
P 1.000000 0.000000 -1.500000
H 2.203315 -0.228656 -0.718819
H 0.596369 1.156424 -0.718809
H 0.200316 -0.927768 -0.718817
O -0.500000 0.866000 -1.500000
H 0.240289 1.121183 -0.893812
H -1.240289 0.610817 -0.893812
O -0.500000 -0.866000 -1.500000
H 0.240289 -0.610817 -0.893812
H -1.240289 -1.121183 -0.893812
*
