!XTB VERYTIGHTSCF LooseOpt
%geom MaxIter 500 end
* xyz -1 3
V 0.000000 0.000000 0.000000
N 1.500000 0.000000 0.000000
H 1.867040 -0.130398 -0.967862
H 1.867072 0.903394 0.371008
H 1.867058 -0.772996 0.596854
O -1.500000 0.000000 0.000000
H -2.106188 0.255183 0.740289
H -2.106188 -0.255183 -0.740289
O 0.000000 1.500000 0.000000
H 0.740289 2.106188 -0.255183
H -0.740289 2.106188 0.255183
O 0.000000 -1.500000 0.000000
H 0.740289 -2.106188 0.255183
H -0.740289 -2.106188 -0.255183
C 0.000000 0.000000 1.500000
H 1.022681 0.219378 1.869818
H -0.701328 0.775976 1.869828
H -0.321353 -0.995354 1.869824
C 0.000000 0.000000 -1.500000
H -1.022681 -0.219378 -1.869818
H 0.701328 -0.775976 -1.869828
H 0.321353 0.995354 -1.869824
*
