!XTB VERYTIGHTSCF LooseOpt
%geom MaxIter 500 end
* xyz 0 2
Ti 0.000000 0.000000 0.000000
O 0.866025 0.866025 0.866025
H 1.745929 1.260823 0.641272
H 0.686087 1.171193 1.790744
C -0.866025 -0.866025 0.866025
H -0.319337 -1.122640 1.796643
H -1.796649 -0.319345 1.122644
H -1.122643 -1.796644 0.319342
C -0.866025 0.866025 -0.866025
H -0.690404 1.932463 -0.615753
H -0.615761 0.690409 -1.932468
H -1.932464 0.615757 -0.690409
C 0.866025 -0.866025 -0.866025
H 1.468676 -0.226617 -1.543327
H 1.543331 -1.468683 -0.226624
H 0.226623 -1.543330 -1.468678
*
