!XTB VERYTIGHTSCF LooseOpt
%geom MaxIter 500 end
* xyz 2 2
Mn 0.000000 0.000000 0.000000
O 0.000000 0.000000 3.128123
C 0.000000 0.000000 2.000000
S 0.000000 0.000000 -2.000000
H -1.010479 0.074212 -2.976730
H 1.010479 -0.074212 -2.976727
S 2.000000 0.000000 0.000000
H 2.976730 -0.074212 -1.010479
H 2.976727 0.074212 1.010479
O -1.000000 1.732051 0.000000
H -0.637380 2.641375 0.149150
H -1.968808 1.872675 -0.149150
O -1.000000 -1.732051 0.000000
H -0.858375 -2.513784 0.591139
H -1.747813 -2.000266 -0.591139
*
