!XTB VERYTIGHTSCF LooseOpt
%geom MaxIter 500 end
* xyz 2 1
Nb 0.000000 0.000000 0.000000
O 1.500000 0.000000 0.000000
H 2.106188 0.255183 -0.740289
H 2.106188 -0.255183 0.740289
O -1.500000 0.000000 0.000000
H -2.106188 0.255183 0.740289
H -2.106188 -0.255183 -0.740289
O 0.000000 1.500000 0.000000
H 0.740289 2.106188 -0.255183
H -0.740289 2.106188 0.255183
C 0.000000 -1.500000 0.000000
H 1.022681 -1.869818 0.219378
H -0.701328 -1.869828 0.775976
H -0.321353 -1.869824 -0.995354
C 0.000000 0.000000 1.500000
H 1.022681 0.219378 1.869818
H -0.701328 0.775976 1.869828
H -0.321353 -0.995354 1.869824
C 0.000000 0.000000 -1.500000
H -1.022681 -0.219378 -1.869818
H 0.701328 -0.775976 -1.869828
H 0.321353 0.995354 -1.869824
*
