!XTB VERYTIGHTSCF LooseOpt
%geom MaxIter 500 end
* xyz 2 5
Mn 0.000000 0.000000 0.000000
N 0.000000 0.000000 2.000000
H 0.967862 -0.130398 2.367040
H -0.371008 0.903394 2.367072
H -0.596854 -0.772996 2.367058
N 0.000000 0.000000 -2.000000
H -0.967862 0.130398 -2.367040
H 0.371008 -0.903394 -2.367072
H 0.596854 0.772996 -2.367058
P 2.000000 0.000000 0.000000
H 2.781181 -0.228656 -1.203315
H 2.781191 1.156424 0.403631
H 2.781183 -0.927768 0.799684
P -1.000000 1.732051 0.000000
H -0.587115 2.872460 0.799679
H -1.192572 2.522911 -1.203308
H -2.392090 1.830360 0.403629
C -1.000000 -1.732051 0.000000
H -0.512892 -2.440312 0.701327
H -2.046917 -1.554653 0.321351
H -0.994926 -2.162016 -1.022678
*
