!XTB VERYTIGHTSCF LooseOpt
%geom MaxIter 500 end
* xyz 2 1
Ti 0.000000 0.000000 0.000000
Cl 0.866025 0.866025 0.866025
Cl -0.866025 -0.866025 0.866025
S -0.866025 0.866025 -0.866025
H -1.274931 2.211198 -0.803694
H -1.584949 0.648682 -2.056186
O 0.866025 -0.866025 -0.866025
H 1.573706 -0.578234 -1.496084
H 0.858310 -1.853782 -0.935932
*
