!XTB VERYTIGHTSCF LooseOpt
%geom MaxIter 500 end
* xyz 2 3
W 0.000000 0.000000 0.000000
N 1.000000 0.000000 1.500000
H 1.967862 -0.130398 1.867040
H 0.628992 0.903394 1.867072
H 0.403146 -0.772996 1.867058
P -0.500000 0.866000 1.500000
H 0.703315 0.637344 2.281181
H -0.903631 2.022424 2.281191
H -1.299684 -0.061768 2.281183
O -0.500000 -0.866000 1.500000
H 0.240289 -0.610817 2.106188
H -1.240289 -1.121183 2.106188
O 1.000000 0.000000 -1.500000
H 1.740289 0.255183 -0.893812
H 0.259711 -0.255183 -0.893812
O -0.500000 0.866000 -1.500000
H 0.240289 1.121183 -0.893812
H -1.240289 0.610817 -0.893812
O -0.500000 -0.866000 -1.500000
H 0.240289 -0.610817 -0.893812
H -1.240289 -1.121183 -0.893812
*
