!XTB VERYTIGHTSCF LooseOpt
%geom MaxIter 500 end
* xyz 2 6
Mn 0.000000 0.000000 0.000000
O 1.000000 0.000000 1.128123
C 1.000000 0.000000 0.000000
N -0.500000 0.866000 0.000000
H 0.467862 0.735602 0.367040
H -0.871008 1.769394 0.367072
H -1.096854 0.093004 0.367058
P -0.500000 -0.866000 0.000000
H 0.703315 -1.094656 0.781181
H -0.903631 0.290424 0.781191
H -1.299684 -1.793768 0.781183
*
