!XTB VERYTIGHTSCF LooseOpt
%geom MaxIter 500 end
* xyz -1 1
Zr 0.000000 0.000000 0.000000
Cl 1.500000 0.000000 0.000000
Cl -1.500000 0.000000 0.000000
Cl 0.000000 1.500000 0.000000
Cl 0.000000 -1.500000 0.000000
Cl 0.000000 0.000000 1.500000
P 0.000000 0.000000 -1.500000
H -1.203315 0.228656 -2.281181
H 0.403631 -1.156424 -2.281191
H 0.799684 0.927768 -2.281183
*
