!XTB VERYTIGHTSCF LooseOpt
%geom MaxIter 500 end
* xyz 1 3
W 0.000000 0.000000 0.000000
Cl 1.000000 0.000000 1.500000
O -0.500000 0.866000 2.628123
C -0.500000 0.866000 1.500000
O -0.500000 -0.866000 2.628123
C -0.500000 -0.866000 1.500000
O 1.000000 0.000000 -0.371877
C 1.000000 0.000000 -1.500000
S -0.500000 0.866000 -1.500000
H 0.510479 0.791788 -0.523270
H -1.510479 0.940212 -0.523273
S -0.500000 -0.866000 -1.500000
H 0.510479 -0.940212 -0.523270
H -1.510479 -0.791788 -0.523273
*
