!XTB VERYTIGHTSCF LooseOpt
%geom MaxIter 500 end
* xyz 1 3
Ti 0.000000 0.000000 0.000000
P 0.866025 0.866025 0.866025
H 2.314386 0.882415 0.754321
H 0.754331 2.314386 0.882421
H 0.882411 0.754327 2.314386
P -0.866025 -0.866025 0.866025
H -0.319695 -1.751666 1.879760
H -1.879761 -0.319706 1.751671
H -1.751672 -1.879756 0.319697
P -0.866025 0.866025 -0.866025
H -1.243085 2.217744 -0.490292
H -0.490301 1.243094 -2.217744
H -2.217742 0.490290 -1.243092
C 0.866025 -0.866025 -0.866025
H 1.468676 -0.226617 -1.543327
H 1.543331 -1.468683 -0.226624
H 0.226623 -1.543330 -1.468678
*
