!XTB VERYTIGHTSCF LooseOpt
%geom MaxIter 500 end
* xyz 1 2
Mn 0.000000 0.000000 0.000000
Cl 1.500000 1.500000 0.000000
O -1.500000 1.500000 1.128123
C -1.500000 1.500000 0.000000
O -1.500000 -1.500000 1.128123
C -1.500000 -1.500000 0.000000
N 1.500000 -1.500000 0.000000
H 2.467862 -1.630398 0.367040
H 1.128992 -0.596606 0.367072
H 0.903146 -2.272996 0.367058
N 0.000000 0.000000 2.000000
H 0.967862 -0.130398 2.367040
H -0.371008 0.903394 2.367072
H -0.596854 -0.772996 2.367058
*
