!XTB VERYTIGHTSCF LooseOpt
%geom MaxIter 500 end
* xyz 1 5
W 0.000000 0.000000 0.000000
O 1.000000 0.000000 2.628123
C 1.000000 0.000000 1.500000
O -0.500000 0.866000 2.628123
C -0.500000 0.866000 1.500000
S -0.500000 -0.866000 1.500000
H 0.510479 -0.940212 2.476730
H -1.510479 -0.791788 2.476727
S 1.000000 0.000000 -1.500000
H 2.010479 -0.074212 -0.523270
H -0.010479 0.074212 -0.523273
P -0.500000 0.866000 -1.500000
H 0.703315 0.637344 -0.718819
H -0.903631 2.022424 -0.718809
H -1.299684 -0.061768 -0.718817
C -0.500000 -0.866000 -1.500000
H 0.522681 -0.646622 -1.130182
H -1.201328 -0.090024 -1.130172
H -0.821353 -1.861354 -1.130176
*
