!XTB VERYTIGHTSCF LooseOpt
%geom MaxIter 500 end
* xyz 1 3
Tc 0.000000 0.000000 0.000000
P 1.500000 0.000000 0.000000
H 2.281181 -0.228656 -1.203315
H 2.281191 1.156424 0.403631
H 2.281183 -0.927768 0.799684
P -1.500000 0.000000 0.000000
H -2.281181 -0.228656 1.203315
H -2.281191 1.156424 -0.403631
H -2.281183 -0.927768 -0.799684
P 0.000000 1.500000 0.000000
H 1.203315 2.281181 0.228656
H -0.403631 2.281191 -1.156424
H -0.799684 2.281183 0.927768
P 0.000000 -1.500000 0.000000
H 1.203315 -2.281181 -0.228656
H -0.403631 -2.281191 1.156424
H -0.799684 -2.281183 -0.927768
C 0.000000 0.000000 1.500000
H 1.022681 0.219378 1.869818
H -0.701328 0.775976 1.869828
H -0.321353 -0.995354 1.869824
C 0.000000 0.000000 -1.500000
H -1.022681 -0.219378 -1.869818
H 0.701328 -0.775976 -1.869828
H 0.321353 0.995354 -1.869824
*
