!XTB VERYTIGHTSCF LooseOpt
%geom MaxIter 500 end
* xyz 3 1
Ta 0.000000 0.000000 0.000000
Cl 1.500000 1.500000 0.000000
Cl -1.500000 1.500000 0.000000
O -1.500000 -1.500000 1.128123
C -1.500000 -1.500000 0.000000
O 1.500000 -1.500000 1.128123
C 1.500000 -1.500000 0.000000
N 0.000000 0.000000 2.000000
H 0.967862 -0.130398 2.367040
H -0.371008 0.903394 2.367072
H -0.596854 -0.772996 2.367058
*
