!XTB VERYTIGHTSCF LooseOpt
%geom MaxIter 500 end
* xyz 2 3
Cr 0.000000 0.000000 0.000000
O 1.500000 1.500000 1.128123
C 1.500000 1.500000 0.000000
S -1.500000 1.500000 0.000000
H -0.489521 1.425788 0.976730
H -2.510479 1.574212 0.976727
S -1.500000 -1.500000 0.000000
H -0.489521 -1.574212 0.976730
H -2.510479 -1.425788 0.976727
S 1.500000 -1.500000 0.000000
H 2.510479 -1.574212 0.976730
H 0.489521 -1.425788 0.976727
N 0.000000 0.000000 2.000000
H 0.967862 -0.130398 2.367040
H -0.371008 0.903394 2.367072
H -0.596854 -0.772996 2.367058
*
