!XTB VERYTIGHTSCF LooseOpt
%geom MaxIter 500 end
* xyz 2 2
Mn 0.000000 0.000000 0.000000
O 1.000000 0.000000 1.128123
C 1.000000 0.000000 0.000000
S -0.500000 0.866000 0.000000
H 0.510479 0.791788 0.976730
H -1.510479 0.940212 0.976727
O -0.500000 -0.866000 0.000000
H 0.240289 -0.610817 0.606188
H -1.240289 -1.121183 0.606188
*
