!XTB VERYTIGHTSCF LooseOpt
%geom MaxIter 500 end
* xyz 1 6
Mn 0.000000 0.000000 0.000000
Cl 1.000000 0.000000 0.000000
N -0.500000 0.866000 0.000000
H 0.467862 0.735602 0.367040
H -0.871008 1.769394 0.367072
H -1.096854 0.093004 0.367058
N -0.500000 -0.866000 0.000000
H 0.467862 -0.996398 0.367040
H -0.871008 0.037394 0.367072
H -1.096854 -1.638996 0.367058
*
