!XTB VERYTIGHTSCF LooseOpt
%geom MaxIter 500 end
* xyz 2 6
Mn 0.000000 0.000000 0.000000
S 1.000000 0.000000 0.000000
H 2.010479 -0.074212 0.976730
H -0.010479 0.074212 0.976727
S -0.500000 0.866000 0.000000
H 0.510479 0.791788 0.976730
H -1.510479 0.940212 0.976727
N -0.500000 -0.866000 0.000000
H 0.467862 -0.996398 0.367040
H -0.871008 0.037394 0.367072
H -1.096854 -1.638996 0.367058
*
