!XTB VERYTIGHTSCF LooseOpt
%geom MaxIter 500 end
* xyz 2 5
Mn 0.000000 0.000000 0.000000
S 1.500000 1.500000 0.000000
H 2.510479 1.425788 0.976730
H 0.489521 1.574212 0.976727
P -1.500000 1.500000 0.000000
H -0.296685 1.271344 0.781181
H -1.903631 2.656424 0.781191
H -2.299684 0.572232 0.781183
P -1.500000 -1.500000 0.000000
H -0.296685 -1.728656 0.781181
H -1.903631 -0.343576 0.781191
H -2.299684 -2.427768 0.781183
P 1.500000 -1.500000 0.000000
H 2.703315 -1.728656 0.781181
H 1.096369 -0.343576 0.781191
H 0.700316 -2.427768 0.781183
C 0.000000 0.000000 2.000000
H 1.022681 0.219378 2.369818
H -0.701328 0.775976 2.369828
H -0.321353 -0.995354 2.369824
*
