!XTB VERYTIGHTSCF LooseOpt
%geom MaxIter 500 end
* xyz 0 5
Cr 0.000000 0.000000 0.000000
Cl 1.500000 1.500000 0.000000
O -1.500000 1.500000 1.128123
C -1.500000 1.500000 0.000000
O -1.500000 -1.500000 1.128123
C -1.500000 -1.500000 0.000000
N 1.500000 -1.500000 0.000000
H 2.467862 -1.630398 0.367040
H 1.128992 -0.596606 0.367072
H 0.903146 -2.272996 0.367058
C 0.000000 0.000000 2.000000
H 1.022681 0.219378 2.369818
H -0.701328 0.775976 2.369828
H -0.321353 -0.995354 2.369824
*
