!XTB VERYTIGHTSCF LooseOpt
%geom MaxIter 500 end
* xyz 5 1
Ta 0.000000 0.000000 0.000000
O 1.500000 1.500000 1.128123
C 1.500000 1.500000 0.000000
O -1.500000 1.500000 1.128123
C -1.500000 1.500000 0.000000
O -1.500000 -1.500000 1.128123
C -1.500000 -1.500000 0.000000
O 1.500000 -1.500000 0.000000
H 2.240289 -1.244817 0.606188
H 0.759711 -1.755183 0.606188
O 0.000000 0.000000 2.000000
H 0.740289 0.255183 2.606188
H -0.740289 -0.255183 2.606188
*
