!XTB VERYTIGHTSCF LooseOpt
%geom MaxIter 500 end
* xyz 1 3
Ta 0.000000 0.000000 0.000000
Cl 1.500000 1.500000 0.000000
Cl -1.500000 1.500000 0.000000
O -1.500000 -1.500000 1.128123
C -1.500000 -1.500000 0.000000
P 1.500000 -1.500000 0.000000
H 2.703315 -1.728656 0.781181
H 1.096369 -0.343576 0.781191
H 0.700316 -2.427768 0.781183
P 0.000000 0.000000 2.000000
H 1.203315 -0.228656 2.781181
H -0.403631 1.156424 2.781191
H -0.799684 -0.927768 2.781183
*
