!XTB VERYTIGHTSCF LooseOpt
%geom MaxIter 500 end
* xyz 2 3
V 0.000000 0.000000 0.000000
Cl 0.866025 0.866025 0.866025
N -0.866025 -0.866025 0.866025
H -0.287051 -1.385311 1.561446
H -1.561469 -0.287067 1.385328
H -1.385317 -1.561459 0.287063
P -0.866025 0.866025 -0.866025
H -1.243085 2.217744 -0.490292
H -0.490301 1.243094 -2.217744
H -2.217742 0.490290 -1.243092
P 0.866025 -0.866025 -0.866025
H 1.390996 -0.416337 -2.143789
H 2.143792 -1.390999 -0.416348
H 0.416341 -2.143793 -1.390991
*
