!XTB VERYTIGHTSCF LooseOpt
%geom MaxIter 500 end
* xyz 2 3
Mo 0.000000 0.000000 0.000000
O 0.000000 0.000000 3.128123
C 0.000000 0.000000 2.000000
O 0.000000 0.000000 -3.128123
C 0.000000 0.000000 -2.000000
O 3.128123 0.000000 0.000000
C 2.000000 0.000000 0.000000
P -1.000000 1.732051 0.000000
H -0.587115 2.872460 0.799679
H -1.192572 2.522911 -1.203308
H -2.392090 1.830360 0.403629
O -1.000000 -1.732051 0.000000
H -0.858375 -2.513784 0.591139
H -1.747813 -2.000266 -0.591139
*
