!XTB VERYTIGHTSCF LooseOpt
%geom MaxIter 500 end
* xyz 3 4
Cr 0.000000 0.000000 0.000000
S 2.000000 0.000000 0.000000
H 2.976730 -0.074212 -1.010479
H 2.976727 0.074212 1.010479
N -2.000000 0.000000 0.000000
H -2.367040 -0.130398 0.967862
H -2.367072 0.903394 -0.371008
H -2.367058 -0.772996 -0.596854
O 0.000000 2.000000 0.000000
H 0.740289 2.606188 -0.255183
H -0.740289 2.606188 0.255183
O 0.000000 -2.000000 0.000000
H 0.740289 -2.606188 0.255183
H -0.740289 -2.606188 -0.255183
*
