!XTB VERYTIGHTSCF LooseOpt
%geom MaxIter 500 end
* xyz 3 5
Tc 0.000000 0.000000 0.000000
S 1.500000 0.000000 0.000000
H 2.476730 -0.074212 -1.010479
H 2.476727 0.074212 1.010479
S -1.500000 0.000000 0.000000
H -2.476730 -0.074212 1.010479
H -2.476727 0.074212 -1.010479
S 0.000000 1.500000 0.000000
H 1.010479 2.476730 0.074212
H -1.010479 2.476727 -0.074212
S 0.000000 -1.500000 0.000000
H 1.010479 -2.476730 -0.074212
H -1.010479 -2.476727 0.074212
P 0.000000 0.000000 1.500000
H 1.203315 -0.228656 2.281181
H -0.403631 1.156424 2.281191
H -0.799684 -0.927768 2.281183
P 0.000000 0.000000 -1.500000
H -1.203315 0.228656 -2.281181
H 0.403631 -1.156424 -2.281191
H 0.799684 0.927768 -2.281183
*
