!XTB VERYTIGHTSCF LooseOpt
%geom MaxIter 500 end
* xyz 2 2
Mn 0.000000 0.000000 0.000000
N 1.000000 0.000000 0.000000
H 1.967862 -0.130398 0.367040
H 0.628992 0.903394 0.367072
H 0.403146 -0.772996 0.367058
P -0.500000 0.866000 0.000000
H 0.703315 0.637344 0.781181
H -0.903631 2.022424 0.781191
H -1.299684 -0.061768 0.781183
P -0.500000 -0.866000 0.000000
H 0.703315 -1.094656 0.781181
H -0.903631 0.290424 0.781191
H -1.299684 -1.793768 0.781183
*
