!XTB VERYTIGHTSCF LooseOpt
%geom MaxIter 500 end
* xyz 0 3
Mn 0.000000 0.000000 0.000000
Cl 1.500000 1.500000 0.000000
O -1.500000 1.500000 1.128123
C -1.500000 1.500000 0.000000
N -1.500000 -1.500000 0.000000
H -0.532138 -1.630398 0.367040
H -1.871008 -0.596606 0.367072
H -2.096854 -2.272996 0.367058
C 1.500000 -1.500000 0.000000
H 2.522681 -1.280622 0.369818
H 0.798672 -0.724024 0.369828
H 1.178647 -2.495354 0.369824
C 0.000000 0.000000 2.000000
H 1.022681 0.219378 2.369818
H -0.701328 0.775976 2.369828
H -0.321353 -0.995354 2.369824
*
