!XTB VERYTIGHTSCF LooseOpt
%geom MaxIter 500 end
* xyz 5 3
Re 0.000000 0.000000 0.000000
O 2.628123 0.000000 0.000000
C 1.500000 0.000000 0.000000
O -2.628123 0.000000 0.000000
C -1.500000 0.000000 0.000000
O 0.000000 2.628123 0.000000
C 0.000000 1.500000 0.000000
O 0.000000 -2.628123 0.000000
C 0.000000 -1.500000 0.000000
O 0.000000 0.000000 2.628123
C 0.000000 0.000000 1.500000
O 0.000000 0.000000 -2.628123
C 0.000000 0.000000 -1.500000
*
