!XTB VERYTIGHTSCF LooseOpt
%geom MaxIter 500 end
* xyz 0 5
Mn 0.000000 0.000000 0.000000
Cl 0.000000 0.000000 2.000000
S 0.000000 0.000000 -2.000000
H -1.010479 0.074212 -2.976730
H 1.010479 -0.074212 -2.976727
S 2.000000 0.000000 0.000000
H 2.976730 -0.074212 -1.010479
H 2.976727 0.074212 1.010479
S -1.000000 1.732051 0.000000
H -0.762640 2.996921 0.569509
H -2.214088 2.158924 -0.569509
P -1.000000 -1.732051 0.000000
H -0.389093 -2.986788 0.403636
H -2.194065 -1.944699 0.799677
H -1.588619 -2.294244 -1.203313
*
