!XTB VERYTIGHTSCF LooseOpt
%geom MaxIter 500 end
* xyz 2 5
Mn 0.000000 0.000000 0.000000
Cl 2.000000 0.000000 0.000000
O -3.128123 0.000000 0.000000
C -2.000000 0.000000 0.000000
O 0.000000 3.128123 0.000000
C 0.000000 2.000000 0.000000
S 0.000000 -2.000000 0.000000
H 1.010479 -2.976730 -0.074212
H -1.010479 -2.976727 0.074212
*
