! B3LYP Def2-SVP Opt D3BJ
%PAL NPROCS 16 END
* xyz 2 6
Mn 0.000000 0.000000 0.000000
O 0.000000 2.628123 0.000000
C 0.000000 1.500000 0.000000
S -1.500000 0.000000 0.000000
H -2.476730 -0.074212 1.010479
H -2.476727 0.074212 -1.010479
S 1.500000 0.000000 0.000000
H 2.476730 -0.074212 -1.010479
H 2.476727 0.074212 1.010479
*
