!XTB VERYTIGHTSCF LooseOpt
%geom MaxIter 500 end
* xyz 2 2
Mn 0.000000 0.000000 0.000000
O 1.500000 1.500000 1.128123
C 1.500000 1.500000 0.000000
O -1.500000 1.500000 1.128123
C -1.500000 1.500000 0.000000
O -1.500000 -1.500000 1.128123
C -1.500000 -1.500000 0.000000
P 1.500000 -1.500000 0.000000
H 2.703315 -1.728656 0.781181
H 1.096369 -0.343576 0.781191
H 0.700316 -2.427768 0.781183
O 0.000000 0.000000 2.000000
H 0.740289 0.255183 2.606188
H -0.740289 -0.255183 2.606188
*
