!XTB VERYTIGHTSCF LooseOpt
%geom MaxIter 500 end
* xyz -1 1
Mo 0.000000 0.000000 0.000000
Cl 1.500000 0.000000 0.000000
N -1.500000 0.000000 0.000000
H -1.867040 -0.130398 0.967862
H -1.867072 0.903394 -0.371008
H -1.867058 -0.772996 -0.596854
N 0.000000 1.500000 0.000000
H 0.967862 1.867040 0.130398
H -0.371008 1.867072 -0.903394
H -0.596854 1.867058 0.772996
N 0.000000 -1.500000 0.000000
H 0.967862 -1.867040 -0.130398
H -0.371008 -1.867072 0.903394
H -0.596854 -1.867058 -0.772996
P 0.000000 0.000000 1.500000
H 1.203315 -0.228656 2.281181
H -0.403631 1.156424 2.281191
H -0.799684 -0.927768 2.281183
P 0.000000 0.000000 -1.500000
H -1.203315 0.228656 -2.281181
H 0.403631 -1.156424 -2.281191
H 0.799684 0.927768 -2.281183
*
