!XTB VERYTIGHTSCF LooseOpt
%geom MaxIter 500 end
* xyz 2 3
Ti 0.000000 0.000000 0.000000
S 0.866025 0.866025 0.866025
H 2.242563 1.157872 0.889387
H 0.617316 1.702007 1.970493
P -0.866025 -0.866025 0.866025
H -0.319695 -1.751666 1.879760
H -1.879761 -0.319706 1.751671
H -1.751672 -1.879756 0.319697
O -0.866025 0.866025 -0.866025
H -0.858310 1.853782 -0.935932
H -1.573706 0.578234 -1.496084
O 0.866025 -0.866025 -0.866025
H 1.573706 -0.578234 -1.496084
H 0.858310 -1.853782 -0.935932
*
