!XTB VERYTIGHTSCF LooseOpt
%geom MaxIter 500 end
* xyz 4 3
Mo 0.000000 0.000000 0.000000
S 0.866025 0.866025 0.866025
H 2.242563 1.157872 0.889387
H 0.617316 1.702007 1.970493
S -0.866025 -0.866025 0.866025
H -0.617318 -1.702009 1.970495
H -2.242562 -1.157871 0.889385
P -0.866025 0.866025 -0.866025
H -1.243085 2.217744 -0.490292
H -0.490301 1.243094 -2.217744
H -2.217742 0.490290 -1.243092
O 0.866025 -0.866025 -0.866025
H 1.573706 -0.578234 -1.496084
H 0.858310 -1.853782 -0.935932
*
