!XTB VERYTIGHTSCF LooseOpt
%geom MaxIter 500 end
* xyz 2 6
Mn 0.000000 0.000000 0.000000
N 0.866025 0.866025 0.866025
H 1.868821 0.770561 0.594426
H 0.594440 1.868842 0.770581
H 0.770576 0.594434 1.868830
O -0.866025 -0.866025 0.866025
H -0.686087 -1.171193 1.790744
H -1.745929 -1.260823 0.641272
O -0.866025 0.866025 -0.866025
H -0.858310 1.853782 -0.935932
H -1.573706 0.578234 -1.496084
O 0.866025 -0.866025 -0.866025
H 1.573706 -0.578234 -1.496084
H 0.858310 -1.853782 -0.935932
*
