!XTB VERYTIGHTSCF LooseOpt
%geom MaxIter 500 end
* xyz 1 1
W 0.000000 0.000000 0.000000
Cl 1.500000 0.000000 0.000000
Cl -1.500000 0.000000 0.000000
Cl 0.000000 1.500000 0.000000
Cl 0.000000 -1.500000 0.000000
Cl 0.000000 0.000000 1.500000
S 0.000000 0.000000 -1.500000
H -1.010479 0.074212 -2.476730
H 1.010479 -0.074212 -2.476727
*
