!XTB VERYTIGHTSCF LooseOpt
%geom MaxIter 500 end
* xyz 5 1
Mo 0.000000 0.000000 0.000000
N 0.866025 0.866025 0.866025
H 1.868821 0.770561 0.594426
H 0.594440 1.868842 0.770581
H 0.770576 0.594434 1.868830
P -0.866025 -0.866025 0.866025
H -0.319695 -1.751666 1.879760
H -1.879761 -0.319706 1.751671
H -1.751672 -1.879756 0.319697
P -0.866025 0.866025 -0.866025
H -1.243085 2.217744 -0.490292
H -0.490301 1.243094 -2.217744
H -2.217742 0.490290 -1.243092
C 0.866025 -0.866025 -0.866025
H 1.468676 -0.226617 -1.543327
H 1.543331 -1.468683 -0.226624
H 0.226623 -1.543330 -1.468678
*
