! B3LYP Def2-SVP Opt D3BJ
%PAL NPROCS 16 END
* xyz 4 1
Ta 0.000000 0.000000 0.000000
S 0.000000 1.500000 0.000000
H 1.010479 2.476730 0.074212
H -1.010479 2.476727 -0.074212
N -1.500000 0.000000 0.000000
H -1.867040 -0.130398 0.967862
H -1.867072 0.903394 -0.371008
H -1.867058 -0.772996 -0.596854
C 1.500000 0.000000 0.000000
H 1.869818 0.219378 -1.022681
H 1.869828 0.775976 0.701328
H 1.869824 -0.995354 0.321353
*
