!XTB VERYTIGHTSCF LooseOpt
%geom MaxIter 500 end
* xyz 0 4
V 0.000000 0.000000 0.000000
Cl 2.000000 0.000000 0.000000
Cl -2.000000 0.000000 0.000000
N 0.000000 2.000000 0.000000
H 0.967862 2.367040 0.130398
H -0.371008 2.367072 -0.903394
H -0.596854 2.367058 0.772996
P 0.000000 -2.000000 0.000000
H 1.203315 -2.781181 -0.228656
H -0.403631 -2.781191 1.156424
H -0.799684 -2.781183 -0.927768
*
