!XTB VERYTIGHTSCF LooseOpt
%geom MaxIter 500 end
* xyz 1 5
Mn 0.000000 0.000000 0.000000
S 0.866025 0.866025 0.866025
H 2.242563 1.157872 0.889387
H 0.617316 1.702007 1.970493
N -0.866025 -0.866025 0.866025
H -0.287051 -1.385311 1.561446
H -1.561469 -0.287067 1.385328
H -1.385317 -1.561459 0.287063
N -0.866025 0.866025 -0.866025
H -0.976244 1.813708 -0.443855
H -0.443873 0.976259 -1.813731
H -1.813719 0.443869 -0.976251
N 0.866025 -0.866025 -0.866025
H 1.179628 -0.342164 -1.712017
H 1.712036 -1.179650 -0.342178
H 0.342174 -1.712024 -1.179642
*
