!XTB VERYTIGHTSCF LooseOpt
%geom MaxIter 500 end
* xyz -2 5
W 0.000000 0.000000 0.000000
Cl 1.000000 0.000000 1.500000
Cl -0.500000 0.866000 1.500000
Cl -0.500000 -0.866000 1.500000
Cl 1.000000 0.000000 -1.500000
O -0.500000 0.866000 -0.371877
C -0.500000 0.866000 -1.500000
P -0.500000 -0.866000 -1.500000
H 0.703315 -1.094656 -0.718819
H -0.903631 0.290424 -0.718809
H -1.299684 -1.793768 -0.718817
*
