!XTB VERYTIGHTSCF LooseOpt
%geom MaxIter 500 end
* xyz 1 3
Mo 0.000000 0.000000 0.000000
Cl 0.000000 0.000000 2.000000
Cl 0.000000 0.000000 -2.000000
Cl 2.000000 0.000000 0.000000
N -1.000000 1.732051 0.000000
H -0.514087 2.436414 0.596859
H -1.070611 2.115142 -0.967866
H -1.965887 1.598238 0.371007
N -1.000000 -1.732051 0.000000
H -0.401160 -2.501613 0.371003
H -1.852973 -1.663445 0.596858
H -1.296452 -1.984736 -0.967861
*
