!XTB VERYTIGHTSCF LooseOpt
%geom MaxIter 500 end
* xyz 6 1
Mo 0.000000 0.000000 0.000000
O 1.517348 1.517348 1.517348
C 0.866025 0.866025 0.866025
O -1.517348 -1.517348 1.517348
C -0.866025 -0.866025 0.866025
S -0.866025 0.866025 -0.866025
H -1.274931 2.211198 -0.803694
H -1.584949 0.648682 -2.056186
S 0.866025 -0.866025 -0.866025
H 1.584951 -0.648684 -2.056187
H 1.274929 -2.211196 -0.803692
*
