!XTB VERYTIGHTSCF LooseOpt
%geom MaxIter 500 end
* xyz 0 3
W 0.000000 0.000000 0.000000
Cl 0.000000 0.000000 2.000000
O 0.000000 0.000000 -3.128123
C 0.000000 0.000000 -2.000000
P 2.000000 0.000000 0.000000
H 2.781181 -0.228656 -1.203315
H 2.781191 1.156424 0.403631
H 2.781183 -0.927768 0.799684
O -1.000000 1.732051 0.000000
H -0.637380 2.641375 0.149150
H -1.968808 1.872675 -0.149150
C -1.000000 -1.732051 0.000000
H -0.512892 -2.440312 0.701327
H -2.046917 -1.554653 0.321351
H -0.994926 -2.162016 -1.022678
*
