!XTB VERYTIGHTSCF LooseOpt
%geom MaxIter 500 end
* xyz 1 5
Mo 0.000000 0.000000 0.000000
S 1.000000 0.000000 1.500000
H 2.010479 -0.074212 2.476730
H -0.010479 0.074212 2.476727
N -0.500000 0.866000 1.500000
H 0.467862 0.735602 1.867040
H -0.871008 1.769394 1.867072
H -1.096854 0.093004 1.867058
O -0.500000 -0.866000 1.500000
H 0.240289 -0.610817 2.106188
H -1.240289 -1.121183 2.106188
O 1.000000 0.000000 -1.500000
H 1.740289 0.255183 -0.893812
H 0.259711 -0.255183 -0.893812
O -0.500000 0.866000 -1.500000
H 0.240289 1.121183 -0.893812
H -1.240289 0.610817 -0.893812
C -0.500000 -0.866000 -1.500000
H 0.522681 -0.646622 -1.130182
H -1.201328 -0.090024 -1.130172
H -0.821353 -1.861354 -1.130176
*
