!XTB VERYTIGHTSCF LooseOpt
%geom MaxIter 500 end
* xyz 0 3
Mo 0.000000 0.000000 0.000000
Cl 0.000000 0.000000 2.000000
N 0.000000 0.000000 -2.000000
H -0.967862 0.130398 -2.367040
H 0.371008 -0.903394 -2.367072
H 0.596854 0.772996 -2.367058
N 2.000000 0.000000 0.000000
H 2.367040 -0.130398 -0.967862
H 2.367072 0.903394 0.371008
H 2.367058 -0.772996 0.596854
P -1.000000 1.732051 0.000000
H -0.587115 2.872460 0.799679
H -1.192572 2.522911 -1.203308
H -2.392090 1.830360 0.403629
C -1.000000 -1.732051 0.000000
H -0.512892 -2.440312 0.701327
H -2.046917 -1.554653 0.321351
H -0.994926 -2.162016 -1.022678
*
