!XTB VERYTIGHTSCF LooseOpt
%geom MaxIter 500 end
* xyz 1 5
W 0.000000 0.000000 0.000000
Cl 1.000000 0.000000 1.500000
S -0.500000 0.866000 1.500000
H 0.510479 0.791788 2.476730
H -1.510479 0.940212 2.476727
S -0.500000 -0.866000 1.500000
H 0.510479 -0.940212 2.476730
H -1.510479 -0.791788 2.476727
S 1.000000 0.000000 -1.500000
H 2.010479 -0.074212 -0.523270
H -0.010479 0.074212 -0.523273
S -0.500000 0.866000 -1.500000
H 0.510479 0.791788 -0.523270
H -1.510479 0.940212 -0.523273
N -0.500000 -0.866000 -1.500000
H 0.467862 -0.996398 -1.132960
H -0.871008 0.037394 -1.132928
H -1.096854 -1.638996 -1.132942
*
