!XTB VERYTIGHTSCF LooseOpt
%geom MaxIter 500 end
* xyz -1 3
Ti 0.000000 0.000000 0.000000
Cl 0.866025 0.866025 0.866025
Cl -0.866025 -0.866025 0.866025
N -0.866025 0.866025 -0.866025
H -0.976244 1.813708 -0.443855
H -0.443873 0.976259 -1.813731
H -1.813719 0.443869 -0.976251
C 0.866025 -0.866025 -0.866025
H 1.468676 -0.226617 -1.543327
H 1.543331 -1.468683 -0.226624
H 0.226623 -1.543330 -1.468678
*
