!XTB VERYTIGHTSCF LooseOpt
%geom MaxIter 500 end
* xyz 2 5
Mn 0.000000 0.000000 0.000000
O 0.000000 0.000000 3.128123
C 0.000000 0.000000 2.000000
S 0.000000 0.000000 -2.000000
H -1.010479 0.074212 -2.976730
H 1.010479 -0.074212 -2.976727
S 2.000000 0.000000 0.000000
H 2.976730 -0.074212 -1.010479
H 2.976727 0.074212 1.010479
N -1.000000 1.732051 0.000000
H -0.514087 2.436414 0.596859
H -1.070611 2.115142 -0.967866
H -1.965887 1.598238 0.371007
C -1.000000 -1.732051 0.000000
H -0.512892 -2.440312 0.701327
H -2.046917 -1.554653 0.321351
H -0.994926 -2.162016 -1.022678
*
