!XTB VERYTIGHTSCF LooseOpt
%geom MaxIter 500 end
* xyz 1 3
W 0.000000 0.000000 0.000000
S 1.000000 0.000000 1.500000
H 2.010479 -0.074212 2.476730
H -0.010479 0.074212 2.476727
N -0.500000 0.866000 1.500000
H 0.467862 0.735602 1.867040
H -0.871008 1.769394 1.867072
H -1.096854 0.093004 1.867058
N -0.500000 -0.866000 1.500000
H 0.467862 -0.996398 1.867040
H -0.871008 0.037394 1.867072
H -1.096854 -1.638996 1.867058
P 1.000000 0.000000 -1.500000
H 2.203315 -0.228656 -0.718819
H 0.596369 1.156424 -0.718809
H 0.200316 -0.927768 -0.718817
P -0.500000 0.866000 -1.500000
H 0.703315 0.637344 -0.718819
H -0.903631 2.022424 -0.718809
H -1.299684 -0.061768 -0.718817
C -0.500000 -0.866000 -1.500000
H 0.522681 -0.646622 -1.130182
H -1.201328 -0.090024 -1.130172
H -0.821353 -1.861354 -1.130176
*
