!XTB VERYTIGHTSCF LooseOpt
%geom MaxIter 500 end
* xyz -1 5
Mn 0.000000 0.000000 0.000000
Cl 0.866025 0.866025 0.866025
S -0.866025 -0.866025 0.866025
H -0.617318 -1.702009 1.970495
H -2.242562 -1.157871 0.889385
O -0.866025 0.866025 -0.866025
H -0.858310 1.853782 -0.935932
H -1.573706 0.578234 -1.496084
C 0.866025 -0.866025 -0.866025
H 1.468676 -0.226617 -1.543327
H 1.543331 -1.468683 -0.226624
H 0.226623 -1.543330 -1.468678
*
