!XTB VERYTIGHTSCF LooseOpt
%geom MaxIter 500 end
* xyz 4 2
Nb 0.000000 0.000000 0.000000
O 1.517348 1.517348 1.517348
C 0.866025 0.866025 0.866025
S -0.866025 -0.866025 0.866025
H -0.617318 -1.702009 1.970495
H -2.242562 -1.157871 0.889385
S -0.866025 0.866025 -0.866025
H -1.274931 2.211198 -0.803694
H -1.584949 0.648682 -2.056186
O 0.866025 -0.866025 -0.866025
H 1.573706 -0.578234 -1.496084
H 0.858310 -1.853782 -0.935932
*
