!XTB VERYTIGHTSCF LooseOpt
%geom MaxIter 500 end
* xyz 2 3
W 0.000000 0.000000 0.000000
P 1.000000 0.000000 1.500000
H 2.203315 -0.228656 2.281181
H 0.596369 1.156424 2.281191
H 0.200316 -0.927768 2.281183
P -0.500000 0.866000 1.500000
H 0.703315 0.637344 2.281181
H -0.903631 2.022424 2.281191
H -1.299684 -0.061768 2.281183
P -0.500000 -0.866000 1.500000
H 0.703315 -1.094656 2.281181
H -0.903631 0.290424 2.281191
H -1.299684 -1.793768 2.281183
P 1.000000 0.000000 -1.500000
H 2.203315 -0.228656 -0.718819
H 0.596369 1.156424 -0.718809
H 0.200316 -0.927768 -0.718817
O -0.500000 0.866000 -1.500000
H 0.240289 1.121183 -0.893812
H -1.240289 0.610817 -0.893812
O -0.500000 -0.866000 -1.500000
H 0.240289 -0.610817 -0.893812
H -1.240289 -1.121183 -0.893812
*
