!XTB VERYTIGHTSCF LooseOpt
%geom MaxIter 500 end
* xyz 2 2
Mn 0.000000 0.000000 0.000000
S 1.000000 0.000000 0.000000
H 2.010479 -0.074212 0.976730
H -0.010479 0.074212 0.976727
P -0.500000 0.866000 0.000000
H 0.703315 0.637344 0.781181
H -0.903631 2.022424 0.781191
H -1.299684 -0.061768 0.781183
O -0.500000 -0.866000 0.000000
H 0.240289 -0.610817 0.606188
H -1.240289 -1.121183 0.606188
*
