!XTB VERYTIGHTSCF LooseOpt
%geom MaxIter 500 end
* xyz 0 5
Mo 0.000000 0.000000 0.000000
S 1.000000 0.000000 1.500000
H 2.010479 -0.074212 2.476730
H -0.010479 0.074212 2.476727
P -0.500000 0.866000 1.500000
H 0.703315 0.637344 2.281181
H -0.903631 2.022424 2.281191
H -1.299684 -0.061768 2.281183
P -0.500000 -0.866000 1.500000
H 0.703315 -1.094656 2.281181
H -0.903631 0.290424 2.281191
H -1.299684 -1.793768 2.281183
O 1.000000 0.000000 -1.500000
H 1.740289 0.255183 -0.893812
H 0.259711 -0.255183 -0.893812
C -0.500000 0.866000 -1.500000
H 0.522681 1.085378 -1.130182
H -1.201328 1.641976 -1.130172
H -0.821353 -0.129354 -1.130176
C -0.500000 -0.866000 -1.500000
H 0.522681 -0.646622 -1.130182
H -1.201328 -0.090024 -1.130172
H -0.821353 -1.861354 -1.130176
*
