!XTB VERYTIGHTSCF LooseOpt
%geom MaxIter 500 end
* xyz -3 3
Mo 0.000000 0.000000 0.000000
Cl 1.000000 0.000000 1.500000
Cl -0.500000 0.866000 1.500000
Cl -0.500000 -0.866000 1.500000
Cl 1.000000 0.000000 -1.500000
Cl -0.500000 0.866000 -1.500000
O -0.500000 -0.866000 -0.371877
C -0.500000 -0.866000 -1.500000
*
