!XTB VERYTIGHTSCF LooseOpt
%geom MaxIter 500 end
* xyz 1 2
Re 0.000000 0.000000 0.000000
Cl 1.500000 0.000000 0.000000
O -2.628123 0.000000 0.000000
C -1.500000 0.000000 0.000000
O 0.000000 2.628123 0.000000
C 0.000000 1.500000 0.000000
O 0.000000 -2.628123 0.000000
C 0.000000 -1.500000 0.000000
S 0.000000 0.000000 1.500000
H 1.010479 -0.074212 2.476730
H -1.010479 0.074212 2.476727
O 0.000000 0.000000 -1.500000
H -0.740289 -0.255183 -2.106188
H 0.740289 0.255183 -2.106188
*
