!XTB VERYTIGHTSCF LooseOpt
%geom MaxIter 500 end
* xyz -1 3
Mn 0.000000 0.000000 0.000000
Cl 0.000000 0.000000 2.000000
N 0.000000 0.000000 -2.000000
H -0.967862 0.130398 -2.367040
H 0.371008 -0.903394 -2.367072
H 0.596854 0.772996 -2.367058
C 2.000000 0.000000 0.000000
H 2.369818 0.219378 -1.022681
H 2.369828 0.775976 0.701328
H 2.369824 -0.995354 0.321353
C -1.000000 1.732051 0.000000
H -0.322905 2.550001 0.321354
H -1.374903 1.942641 -1.022679
H -1.856928 1.664339 0.701325
C -1.000000 -1.732051 0.000000
H -0.512892 -2.440312 0.701327
H -2.046917 -1.554653 0.321351
H -0.994926 -2.162016 -1.022678
*
