!XTB VERYTIGHTSCF LooseOpt
%geom MaxIter 500 end
* xyz 0 3
Tc 0.000000 0.000000 0.000000
Cl 1.500000 0.000000 0.000000
Cl -1.500000 0.000000 0.000000
S 0.000000 1.500000 0.000000
H 1.010479 2.476730 0.074212
H -1.010479 2.476727 -0.074212
S 0.000000 -1.500000 0.000000
H 1.010479 -2.476730 -0.074212
H -1.010479 -2.476727 0.074212
P 0.000000 0.000000 1.500000
H 1.203315 -0.228656 2.281181
H -0.403631 1.156424 2.281191
H -0.799684 -0.927768 2.281183
C 0.000000 0.000000 -1.500000
H -1.022681 -0.219378 -1.869818
H 0.701328 -0.775976 -1.869828
H 0.321353 0.995354 -1.869824
*
