!XTB VERYTIGHTSCF LooseOpt
%geom MaxIter 500 end
* xyz -3 5
Mo 0.000000 0.000000 0.000000
Cl 1.000000 0.000000 1.500000
Cl -0.500000 0.866000 1.500000
Cl -0.500000 -0.866000 1.500000
S 1.000000 0.000000 -1.500000
H 2.010479 -0.074212 -0.523270
H -0.010479 0.074212 -0.523273
C -0.500000 0.866000 -1.500000
H 0.522681 1.085378 -1.130182
H -1.201328 1.641976 -1.130172
H -0.821353 -0.129354 -1.130176
C -0.500000 -0.866000 -1.500000
H 0.522681 -0.646622 -1.130182
H -1.201328 -0.090024 -1.130172
H -0.821353 -1.861354 -1.130176
*
