!XTB VERYTIGHTSCF LooseOpt
%geom MaxIter 500 end
* xyz 0 2
Mn 0.000000 0.000000 0.000000
S 1.500000 1.500000 0.000000
H 2.510479 1.425788 0.976730
H 0.489521 1.574212 0.976727
O -1.500000 1.500000 0.000000
H -0.759711 1.755183 0.606188
H -2.240289 1.244817 0.606188
O -1.500000 -1.500000 0.000000
H -0.759711 -1.244817 0.606188
H -2.240289 -1.755183 0.606188
C 1.500000 -1.500000 0.000000
H 2.522681 -1.280622 0.369818
H 0.798672 -0.724024 0.369828
H 1.178647 -2.495354 0.369824
C 0.000000 0.000000 2.000000
H 1.022681 0.219378 2.369818
H -0.701328 0.775976 2.369828
H -0.321353 -0.995354 2.369824
*
