!XTB VERYTIGHTSCF LooseOpt
%geom MaxIter 500 end
* xyz 3 3
Mn 0.000000 0.000000 0.000000
S 1.500000 1.500000 0.000000
H 2.510479 1.425788 0.976730
H 0.489521 1.574212 0.976727
P -1.500000 1.500000 0.000000
H -0.296685 1.271344 0.781181
H -1.903631 2.656424 0.781191
H -2.299684 0.572232 0.781183
O -1.500000 -1.500000 0.000000
H -0.759711 -1.244817 0.606188
H -2.240289 -1.755183 0.606188
O 1.500000 -1.500000 0.000000
H 2.240289 -1.244817 0.606188
H 0.759711 -1.755183 0.606188
O 0.000000 0.000000 2.000000
H 0.740289 0.255183 2.606188
H -0.740289 -0.255183 2.606188
*
