! B3LYP Def2-SVP Opt D3BJ
%PAL NPROCS 16 END
* xyz 5 1
Ta 0.000000 0.000000 0.000000
P 0.000000 1.500000 0.000000
H 1.203315 2.281181 0.228656
H -0.403631 2.281191 -1.156424
H -0.799684 2.281183 0.927768
P -1.500000 0.000000 0.000000
H -2.281181 -0.228656 1.203315
H -2.281191 1.156424 -0.403631
H -2.281183 -0.927768 -0.799684
P 1.500000 0.000000 0.000000
H 2.281181 -0.228656 -1.203315
H 2.281191 1.156424 0.403631
H 2.281183 -0.927768 0.799684
*
