!XTB VERYTIGHTSCF LooseOpt
%geom MaxIter 500 end
* xyz 3 4
Re 0.000000 0.000000 0.000000
O 3.128123 0.000000 0.000000
C 2.000000 0.000000 0.000000
N -2.000000 0.000000 0.000000
H -2.367040 -0.130398 0.967862
H -2.367072 0.903394 -0.371008
H -2.367058 -0.772996 -0.596854
O 0.000000 2.000000 0.000000
H 0.740289 2.606188 -0.255183
H -0.740289 2.606188 0.255183
C 0.000000 -2.000000 0.000000
H 1.022681 -2.369818 0.219378
H -0.701328 -2.369828 0.775976
H -0.321353 -2.369824 -0.995354
*
