!XTB VERYTIGHTSCF LooseOpt
%geom MaxIter 500 end
* xyz 1 3
W 0.000000 0.000000 0.000000
Cl 1.000000 0.000000 1.500000
O -0.500000 0.866000 2.628123
C -0.500000 0.866000 1.500000
O -0.500000 -0.866000 2.628123
C -0.500000 -0.866000 1.500000
S 1.000000 0.000000 -1.500000
H 2.010479 -0.074212 -0.523270
H -0.010479 0.074212 -0.523273
N -0.500000 0.866000 -1.500000
H 0.467862 0.735602 -1.132960
H -0.871008 1.769394 -1.132928
H -1.096854 0.093004 -1.132942
O -0.500000 -0.866000 -1.500000
H 0.240289 -0.610817 -0.893812
H -1.240289 -1.121183 -0.893812
*
