!XTB VERYTIGHTSCF LooseOpt
%geom MaxIter 500 end
* xyz 2 6
Tc 0.000000 0.000000 0.000000
O 2.628123 0.000000 0.000000
C 1.500000 0.000000 0.000000
O -2.628123 0.000000 0.000000
C -1.500000 0.000000 0.000000
O 0.000000 2.628123 0.000000
C 0.000000 1.500000 0.000000
O 0.000000 -2.628123 0.000000
C 0.000000 -1.500000 0.000000
O 0.000000 0.000000 2.628123
C 0.000000 0.000000 1.500000
S 0.000000 0.000000 -1.500000
H -1.010479 0.074212 -2.476730
H 1.010479 -0.074212 -2.476727
*
