!XTB VERYTIGHTSCF LooseOpt
%geom MaxIter 500 end
* xyz 3 3
V 0.000000 0.000000 0.000000
O 0.000000 0.000000 3.128123
C 0.000000 0.000000 2.000000
O 0.000000 0.000000 -3.128123
C 0.000000 0.000000 -2.000000
N 2.000000 0.000000 0.000000
H 2.367040 -0.130398 -0.967862
H 2.367072 0.903394 0.371008
H 2.367058 -0.772996 0.596854
O -1.000000 1.732051 0.000000
H -0.637380 2.641375 0.149150
H -1.968808 1.872675 -0.149150
O -1.000000 -1.732051 0.000000
H -0.858375 -2.513784 0.591139
H -1.747813 -2.000266 -0.591139
*
