!XTB VERYTIGHTSCF LooseOpt
%geom MaxIter 500 end
* xyz -1 6
Mn 0.000000 0.000000 0.000000
Cl 0.000000 0.000000 2.000000
Cl 0.000000 0.000000 -2.000000
Cl 2.000000 0.000000 0.000000
N -1.000000 1.732051 0.000000
H -0.514087 2.436414 0.596859
H -1.070611 2.115142 -0.967866
H -1.965887 1.598238 0.371007
O -1.000000 -1.732051 0.000000
H -0.858375 -2.513784 0.591139
H -1.747813 -2.000266 -0.591139
*
