!XTB VERYTIGHTSCF LooseOpt
%geom MaxIter 500 end
* xyz -2 3
W 0.000000 0.000000 0.000000
P 1.000000 0.000000 1.500000
H 2.203315 -0.228656 2.281181
H 0.596369 1.156424 2.281191
H 0.200316 -0.927768 2.281183
O -0.500000 0.866000 1.500000
H 0.240289 1.121183 2.106188
H -1.240289 0.610817 2.106188
C -0.500000 -0.866000 1.500000
H 0.522681 -0.646622 1.869818
H -1.201328 -0.090024 1.869828
H -0.821353 -1.861354 1.869824
C 1.000000 0.000000 -1.500000
H 2.022681 0.219378 -1.130182
H 0.298672 0.775976 -1.130172
H 0.678647 -0.995354 -1.130176
C -0.500000 0.866000 -1.500000
H 0.522681 1.085378 -1.130182
H -1.201328 1.641976 -1.130172
H -0.821353 -0.129354 -1.130176
C -0.500000 -0.866000 -1.500000
H 0.522681 -0.646622 -1.130182
H -1.201328 -0.090024 -1.130172
H -0.821353 -1.861354 -1.130176
*
