!XTB VERYTIGHTSCF LooseOpt
%geom MaxIter 500 end
* xyz 2 3
V 0.000000 0.000000 0.000000
Cl 0.866025 0.866025 0.866025
O -0.866025 -0.866025 0.866025
H -0.686087 -1.171193 1.790744
H -1.745929 -1.260823 0.641272
O -0.866025 0.866025 -0.866025
H -0.858310 1.853782 -0.935932
H -1.573706 0.578234 -1.496084
O 0.866025 -0.866025 -0.866025
H 1.573706 -0.578234 -1.496084
H 0.858310 -1.853782 -0.935932
*
