!XTB VERYTIGHTSCF LooseOpt
%geom MaxIter 500 end
* xyz 6 1
Mo 0.000000 0.000000 0.000000
S 0.000000 0.000000 2.000000
H 1.010479 -0.074212 2.976730
H -1.010479 0.074212 2.976727
S 0.000000 0.000000 -2.000000
H -1.010479 0.074212 -2.976730
H 1.010479 -0.074212 -2.976727
P 2.000000 0.000000 0.000000
H 2.781181 -0.228656 -1.203315
H 2.781191 1.156424 0.403631
H 2.781183 -0.927768 0.799684
P -1.000000 1.732051 0.000000
H -0.587115 2.872460 0.799679
H -1.192572 2.522911 -1.203308
H -2.392090 1.830360 0.403629
O -1.000000 -1.732051 0.000000
H -0.858375 -2.513784 0.591139
H -1.747813 -2.000266 -0.591139
*
