!XTB VERYTIGHTSCF LooseOpt
%geom MaxIter 500 end
* xyz 2 3
W 0.000000 0.000000 0.000000
O 1.000000 0.000000 2.628123
C 1.000000 0.000000 1.500000
O -0.500000 0.866000 2.628123
C -0.500000 0.866000 1.500000
O -0.500000 -0.866000 2.628123
C -0.500000 -0.866000 1.500000
S 1.000000 0.000000 -1.500000
H 2.010479 -0.074212 -0.523270
H -0.010479 0.074212 -0.523273
O -0.500000 0.866000 -1.500000
H 0.240289 1.121183 -0.893812
H -1.240289 0.610817 -0.893812
O -0.500000 -0.866000 -1.500000
H 0.240289 -0.610817 -0.893812
H -1.240289 -1.121183 -0.893812
*
