!XTB VERYTIGHTSCF LooseOpt
%geom MaxIter 500 end
* xyz -1 5
Re 0.000000 0.000000 0.000000
Cl 1.500000 0.000000 0.000000
N -1.500000 0.000000 0.000000
H -1.867040 -0.130398 0.967862
H -1.867072 0.903394 -0.371008
H -1.867058 -0.772996 -0.596854
N 0.000000 1.500000 0.000000
H 0.967862 1.867040 0.130398
H -0.371008 1.867072 -0.903394
H -0.596854 1.867058 0.772996
C 0.000000 -1.500000 0.000000
H 1.022681 -1.869818 0.219378
H -0.701328 -1.869828 0.775976
H -0.321353 -1.869824 -0.995354
C 0.000000 0.000000 1.500000
H 1.022681 0.219378 1.869818
H -0.701328 0.775976 1.869828
H -0.321353 -0.995354 1.869824
C 0.000000 0.000000 -1.500000
H -1.022681 -0.219378 -1.869818
H 0.701328 -0.775976 -1.869828
H 0.321353 0.995354 -1.869824
*
