!XTB VERYTIGHTSCF LooseOpt
%geom MaxIter 500 end
* xyz 2 5
Mn 0.000000 0.000000 0.000000
Cl 0.000000 0.000000 2.000000
O 0.000000 0.000000 -3.128123
C 0.000000 0.000000 -2.000000
N 2.000000 0.000000 0.000000
H 2.367040 -0.130398 -0.967862
H 2.367072 0.903394 0.371008
H 2.367058 -0.772996 0.596854
N -1.000000 1.732051 0.000000
H -0.514087 2.436414 0.596859
H -1.070611 2.115142 -0.967866
H -1.965887 1.598238 0.371007
P -1.000000 -1.732051 0.000000
H -0.389093 -2.986788 0.403636
H -2.194065 -1.944699 0.799677
H -1.588619 -2.294244 -1.203313
*
