!XTB VERYTIGHTSCF LooseOpt
%geom MaxIter 500 end
* xyz -2 1
Mn 0.000000 0.000000 0.000000
Cl 0.866025 0.866025 0.866025
Cl -0.866025 -0.866025 0.866025
S -0.866025 0.866025 -0.866025
H -1.274931 2.211198 -0.803694
H -1.584949 0.648682 -2.056186
C 0.866025 -0.866025 -0.866025
H 1.468676 -0.226617 -1.543327
H 1.543331 -1.468683 -0.226624
H 0.226623 -1.543330 -1.468678
*
