!XTB VERYTIGHTSCF LooseOpt
%geom MaxIter 500 end
* xyz 4 1
Mo 0.000000 0.000000 0.000000
Cl 0.000000 0.000000 2.000000
Cl 0.000000 0.000000 -2.000000
N 2.000000 0.000000 0.000000
H 2.367040 -0.130398 -0.967862
H 2.367072 0.903394 0.371008
H 2.367058 -0.772996 0.596854
P -1.000000 1.732051 0.000000
H -0.587115 2.872460 0.799679
H -1.192572 2.522911 -1.203308
H -2.392090 1.830360 0.403629
P -1.000000 -1.732051 0.000000
H -0.389093 -2.986788 0.403636
H -2.194065 -1.944699 0.799677
H -1.588619 -2.294244 -1.203313
*
