!XTB VERYTIGHTSCF LooseOpt
%geom MaxIter 500 end
* xyz 0 4
V 0.000000 0.000000 0.000000
Cl 2.000000 0.000000 0.000000
O -3.128123 0.000000 0.000000
C -2.000000 0.000000 0.000000
N 0.000000 2.000000 0.000000
H 0.967862 2.367040 0.130398
H -0.371008 2.367072 -0.903394
H -0.596854 2.367058 0.772996
C 0.000000 -2.000000 0.000000
H 1.022681 -2.369818 0.219378
H -0.701328 -2.369828 0.775976
H -0.321353 -2.369824 -0.995354
*
