!XTB VERYTIGHTSCF LooseOpt
%geom MaxIter 500 end
* xyz -2 1
Mn 0.000000 0.000000 0.000000
Cl 0.000000 0.000000 2.000000
Cl 0.000000 0.000000 -2.000000
Cl 2.000000 0.000000 0.000000
S -1.000000 1.732051 0.000000
H -0.762640 2.996921 0.569509
H -2.214088 2.158924 -0.569509
S -1.000000 -1.732051 0.000000
H -0.698371 -3.034027 0.440970
H -2.278357 -2.121818 -0.440970
*
