!XTB VERYTIGHTSCF LooseOpt
%geom MaxIter 500 end
* xyz 3 3
V 0.000000 0.000000 0.000000
S 0.000000 0.000000 2.000000
H 1.010479 -0.074212 2.976730
H -1.010479 0.074212 2.976727
N 0.000000 0.000000 -2.000000
H -0.967862 0.130398 -2.367040
H 0.371008 -0.903394 -2.367072
H 0.596854 0.772996 -2.367058
N 2.000000 0.000000 0.000000
H 2.367040 -0.130398 -0.967862
H 2.367072 0.903394 0.371008
H 2.367058 -0.772996 0.596854
O -1.000000 1.732051 0.000000
H -0.637380 2.641375 0.149150
H -1.968808 1.872675 -0.149150
O -1.000000 -1.732051 0.000000
H -0.858375 -2.513784 0.591139
H -1.747813 -2.000266 -0.591139
*
