!XTB VERYTIGHTSCF LooseOpt
%geom MaxIter 500 end
* xyz 2 5
W 0.000000 0.000000 0.000000
O 1.000000 0.000000 2.628123
C 1.000000 0.000000 1.500000
O -0.500000 0.866000 2.628123
C -0.500000 0.866000 1.500000
N -0.500000 -0.866000 1.500000
H 0.467862 -0.996398 1.867040
H -0.871008 0.037394 1.867072
H -1.096854 -1.638996 1.867058
P 1.000000 0.000000 -1.500000
H 2.203315 -0.228656 -0.718819
H 0.596369 1.156424 -0.718809
H 0.200316 -0.927768 -0.718817
P -0.500000 0.866000 -1.500000
H 0.703315 0.637344 -0.718819
H -0.903631 2.022424 -0.718809
H -1.299684 -0.061768 -0.718817
P -0.500000 -0.866000 -1.500000
H 0.703315 -1.094656 -0.718819
H -0.903631 0.290424 -0.718809
H -1.299684 -1.793768 -0.718817
*
