!XTB VERYTIGHTSCF LooseOpt
%geom MaxIter 500 end
* xyz 1 5
Cr 0.000000 0.000000 0.000000
N 1.500000 1.500000 0.000000
H 2.467862 1.369602 0.367040
H 1.128992 2.403394 0.367072
H 0.903146 0.727004 0.367058
N -1.500000 1.500000 0.000000
H -0.532138 1.369602 0.367040
H -1.871008 2.403394 0.367072
H -2.096854 0.727004 0.367058
P -1.500000 -1.500000 0.000000
H -0.296685 -1.728656 0.781181
H -1.903631 -0.343576 0.781191
H -2.299684 -2.427768 0.781183
O 1.500000 -1.500000 0.000000
H 2.240289 -1.244817 0.606188
H 0.759711 -1.755183 0.606188
C 0.000000 0.000000 2.000000
H 1.022681 0.219378 2.369818
H -0.701328 0.775976 2.369828
H -0.321353 -0.995354 2.369824
*
