!XTB VERYTIGHTSCF LooseOpt
%geom MaxIter 500 end
* xyz 2 6
Mn 0.000000 0.000000 0.000000
N 1.000000 0.000000 0.000000
H 1.967862 -0.130398 0.367040
H 0.628992 0.903394 0.367072
H 0.403146 -0.772996 0.367058
N -0.500000 0.866000 0.000000
H 0.467862 0.735602 0.367040
H -0.871008 1.769394 0.367072
H -1.096854 0.093004 0.367058
O -0.500000 -0.866000 0.000000
H 0.240289 -0.610817 0.606188
H -1.240289 -1.121183 0.606188
*
