!XTB VERYTIGHTSCF LooseOpt
%geom MaxIter 500 end
* xyz -3 5
Re 0.000000 0.000000 0.000000
O 2.628123 0.000000 0.000000
C 1.500000 0.000000 0.000000
S -1.500000 0.000000 0.000000
H -2.476730 -0.074212 1.010479
H -2.476727 0.074212 -1.010479
C 0.000000 1.500000 0.000000
H 1.022681 1.869818 -0.219378
H -0.701328 1.869828 -0.775976
H -0.321353 1.869824 0.995354
C 0.000000 -1.500000 0.000000
H 1.022681 -1.869818 0.219378
H -0.701328 -1.869828 0.775976
H -0.321353 -1.869824 -0.995354
C 0.000000 0.000000 1.500000
H 1.022681 0.219378 1.869818
H -0.701328 0.775976 1.869828
H -0.321353 -0.995354 1.869824
C 0.000000 0.000000 -1.500000
H -1.022681 -0.219378 -1.869818
H 0.701328 -0.775976 -1.869828
H 0.321353 0.995354 -1.869824
*
