!XTB VERYTIGHTSCF LooseOpt
%geom MaxIter 500 end
* xyz 3 2
Nb 0.000000 0.000000 0.000000
Cl 1.500000 0.000000 0.000000
O -2.628123 0.000000 0.000000
C -1.500000 0.000000 0.000000
O 0.000000 2.628123 0.000000
C 0.000000 1.500000 0.000000
S 0.000000 -1.500000 0.000000
H 1.010479 -2.476730 -0.074212
H -1.010479 -2.476727 0.074212
N 0.000000 0.000000 1.500000
H 0.967862 -0.130398 1.867040
H -0.371008 0.903394 1.867072
H -0.596854 -0.772996 1.867058
P 0.000000 0.000000 -1.500000
H -1.203315 0.228656 -2.281181
H 0.403631 -1.156424 -2.281191
H 0.799684 0.927768 -2.281183
*
