!XTB VERYTIGHTSCF LooseOpt
%geom MaxIter 500 end
* xyz -1 3
Mo 0.000000 0.000000 0.000000
Cl 1.000000 0.000000 1.500000
Cl -0.500000 0.866000 1.500000
O -0.500000 -0.866000 2.628123
C -0.500000 -0.866000 1.500000
O 1.000000 0.000000 -0.371877
C 1.000000 0.000000 -1.500000
N -0.500000 0.866000 -1.500000
H 0.467862 0.735602 -1.132960
H -0.871008 1.769394 -1.132928
H -1.096854 0.093004 -1.132942
C -0.500000 -0.866000 -1.500000
H 0.522681 -0.646622 -1.130182
H -1.201328 -0.090024 -1.130172
H -0.821353 -1.861354 -1.130176
*
