!XTB VERYTIGHTSCF LooseOpt
%geom MaxIter 500 end
* xyz 2 3
V 0.000000 0.000000 0.000000
Cl 1.500000 0.000000 0.000000
S -1.500000 0.000000 0.000000
H -2.476730 -0.074212 1.010479
H -2.476727 0.074212 -1.010479
S 0.000000 1.500000 0.000000
H 1.010479 2.476730 0.074212
H -1.010479 2.476727 -0.074212
S 0.000000 -1.500000 0.000000
H 1.010479 -2.476730 -0.074212
H -1.010479 -2.476727 0.074212
O 0.000000 0.000000 1.500000
H 0.740289 0.255183 2.106188
H -0.740289 -0.255183 2.106188
O 0.000000 0.000000 -1.500000
H -0.740289 -0.255183 -2.106188
H 0.740289 0.255183 -2.106188
*
