!XTB VERYTIGHTSCF LooseOpt
%geom MaxIter 500 end
* xyz -1 3
W 0.000000 0.000000 0.000000
O 1.000000 0.000000 2.628123
C 1.000000 0.000000 1.500000
O -0.500000 0.866000 2.628123
C -0.500000 0.866000 1.500000
P -0.500000 -0.866000 1.500000
H 0.703315 -1.094656 2.281181
H -0.903631 0.290424 2.281191
H -1.299684 -1.793768 2.281183
C 1.000000 0.000000 -1.500000
H 2.022681 0.219378 -1.130182
H 0.298672 0.775976 -1.130172
H 0.678647 -0.995354 -1.130176
C -0.500000 0.866000 -1.500000
H 0.522681 1.085378 -1.130182
H -1.201328 1.641976 -1.130172
H -0.821353 -0.129354 -1.130176
C -0.500000 -0.866000 -1.500000
H 0.522681 -0.646622 -1.130182
H -1.201328 -0.090024 -1.130172
H -0.821353 -1.861354 -1.130176
*
