!XTB VERYTIGHTSCF LooseOpt
%geom MaxIter 500 end
* xyz 0 2
Ti 0.000000 0.000000 0.000000
Cl 0.866025 0.866025 0.866025
Cl -0.866025 -0.866025 0.866025
Cl -0.866025 0.866025 -0.866025
P 0.866025 -0.866025 -0.866025
H 1.390996 -0.416337 -2.143789
H 2.143792 -1.390999 -0.416348
H 0.416341 -2.143793 -1.390991
*
