!XTB VERYTIGHTSCF LooseOpt
%geom MaxIter 500 end
* xyz 0 6
Mn 0.000000 0.000000 0.000000
O 1.000000 0.000000 1.128123
C 1.000000 0.000000 0.000000
C -0.500000 0.866000 0.000000
H 0.522681 1.085378 0.369818
H -1.201328 1.641976 0.369828
H -0.821353 -0.129354 0.369824
C -0.500000 -0.866000 0.000000
H 0.522681 -0.646622 0.369818
H -1.201328 -0.090024 0.369828
H -0.821353 -1.861354 0.369824
*
