!XTB VERYTIGHTSCF LooseOpt
%geom MaxIter 500 end
* xyz 2 4
V 0.000000 0.000000 0.000000
P 1.500000 1.500000 0.000000
H 2.703315 1.271344 0.781181
H 1.096369 2.656424 0.781191
H 0.700316 0.572232 0.781183
O -1.500000 1.500000 0.000000
H -0.759711 1.755183 0.606188
H -2.240289 1.244817 0.606188
O -1.500000 -1.500000 0.000000
H -0.759711 -1.244817 0.606188
H -2.240289 -1.755183 0.606188
O 1.500000 -1.500000 0.000000
H 2.240289 -1.244817 0.606188
H 0.759711 -1.755183 0.606188
O 0.000000 0.000000 2.000000
H 0.740289 0.255183 2.606188
H -0.740289 -0.255183 2.606188
*
