!XTB VERYTIGHTSCF LooseOpt
%geom MaxIter 500 end
* xyz 2 2
Ti 0.000000 0.000000 0.000000
Cl 0.866025 0.866025 0.866025
O -1.517348 -1.517348 1.517348
C -0.866025 -0.866025 0.866025
N -0.866025 0.866025 -0.866025
H -0.976244 1.813708 -0.443855
H -0.443873 0.976259 -1.813731
H -1.813719 0.443869 -0.976251
N 0.866025 -0.866025 -0.866025
H 1.179628 -0.342164 -1.712017
H 1.712036 -1.179650 -0.342178
H 0.342174 -1.712024 -1.179642
*
